       2
 i =        2, E =       -21.6605213863
  C        12.9155790095       13.4999996664       13.5000000294
  O        14.0808303903       13.5000003337       13.4999999708
       2
 i =        3, E =       -21.6619110258
  C        12.9240841931       13.4999998317       13.5000000148
  O        14.0723065882       13.5000001735       13.4999999849
       2
 i =        4, E =       -21.6622039774
  C        12.9311799213       13.4999998934       13.5000000090
  O        14.0662061542       13.5000001175       13.4999999899
       2
 i =        5, E =       -21.6622080960
  C        12.9312315941       13.4999998883       13.5000000094
  O        14.0676110036       13.5000001229       13.4999999895
       2
 i =        6, E =       -21.6622086910
  C        12.9321446856       13.4999998879       13.5000000094
  O        14.0685505381       13.5000001239       13.4999999893
       2
 i =        7, E =       -21.6622143029
  C        13.1821446856       13.4999997458       13.5000000231
  O        14.3160565459       13.5000003721       13.4999999374
       2
 i =        8, E =       -21.6622343319
  C        13.0233243854       13.4999998287       13.5000000152
  O        14.1596949885       13.5000002228       13.4999999692
       2
 i =        9, E =       -21.6622504299
  C        13.0873425220       13.4999997884       13.5000000191
  O        14.2237841638       13.5000002918       13.4999999553
       2
 i =       10, E =       -21.6622643737
  C        13.0491829626       13.4999998133       13.5000000166
  O        14.1855896804       13.5000002511       13.4999999636
       2
 i =       11, E =       -21.6622690497
  C        13.0646706189       13.4999998033       13.5000000176
  O        14.2010594513       13.5000002687       13.4999999601
       2
 i =       12, E =       -21.6622694081
  C        13.0614198167       13.4999998047       13.5000000175
  O        14.1978087225       13.5000002672       13.4999999606
       2
 i =       13, E =       -21.6622694081
  C        13.0613973205       13.4999998054       13.5000000174
  O        14.1977860345       13.5000002681       13.4999999605
       2
 i =       14, E =       -21.6622694081
  C        13.0613973205       13.4999998054       13.5000000174
  O        14.1977860345       13.5000002681       13.4999999605
       2
 i =       14, E =       -21.6622091211
  C        12.9327628911       13.4999997767       13.4999999422
  O        14.0690874011       13.5000002241       13.5000000576
       2
 i =       15, E =       -21.6622153889
  C        13.1801758083       13.4999985999       13.5000067323
  O        14.3190874011       13.5000014725       13.4999933387
       2
 i =       16, E =       -21.6622396714
  C        13.0288040104       13.4999993941       13.5000019874
  O        14.1649748206       13.5000006374       13.4999980369
       2
 i =       17, E =       -21.6622355979
  C        13.1059762790       13.4999990884       13.5000036234
  O        14.2420255323       13.5000009674       13.4999964212
       2
 i =       18, E =       -21.6622419134
  C        13.0949474713       13.4999991153       13.5000035586
  O        14.2314200549       13.5000009522       13.4999964227
       2
 i =       19, E =       -21.6621794350
  C        12.8503695671       13.5000002996       13.4999959896
  O        13.9814200549       13.4999994734       13.5000048841
       2
 i =       20, E =       -21.6622073229
  C        12.9342307231       13.4999997192       13.5000002622
  O        14.0718102572       13.5000002092       13.5000000666
       2
 i =       21, E =       -21.6621923402
  C        13.1813794738       13.4999986425       13.5000067972
  O        14.3218102572       13.5000015522       13.4999927693
       2
 i =       22, E =       -21.6622487859
  C        13.0360578682       13.4999994075       13.5000018901
  O        14.1729881245       13.5000006091       13.4999982194
       2
 i =       23, E =       -21.6622348231
  C        13.1126690596       13.4999991728       13.5000031556
  O        14.2493250957       13.5000009130       13.4999967774
       2
 i =       24, E =       -21.6622352156
  C        13.1101161354       13.4999992084       13.5000029314
  O        14.2465104581       13.5000008876       13.4999969634
       2
 i =       25, E =       -21.6622544746
  C        13.0675650960       13.4999996695       13.5000001787
  O        14.2014388078       13.5000005591       13.4999992081
       2
 i =       26, E =       -21.6622477050
  C        13.0879687478       13.4999994104       13.5000017444
  O        14.2233685543       13.5000007514       13.4999978947
       2
 i =       27, E =       -21.6622679665
  C        13.0638321032       13.4999994077       13.5000017582
  O        14.1994603617       13.5000007542       13.4999978468
       2
 i =       28, E =       -21.6622692939
  C        13.0599907059       13.4999993223       13.5000022770
  O        14.1962333329       13.5000008208       13.4999973866
       2
 i =       29, E =       -21.6622694005
  C        13.0617790443       13.4999992888       13.5000024843
  O        14.1982029574       13.5000008509       13.4999971945
       2
 i =       30, E =       -21.6622694081
  C        13.0613993936       13.4999992980       13.5000024309
  O        14.1977882351       13.5000008467       13.4999972314
       2
 i =       31, E =       -21.6622694081
  C        13.0613993936       13.4999992980       13.5000024309
  O        14.1977882351       13.5000008467       13.4999972314
