       3
 i =        2, E =       -37.7637681973
  C        13.5010499679       13.5010498731       13.4999163001
  O        14.3362180900       14.3362179298       13.5306731370
  O        12.6649625878       12.6649628430       13.5312710018
       3
 i =        3, E =       -37.7641407548
  C        13.5006266328       13.5006268122       13.5172235137
  O        14.3323019378       14.3323016545       13.5217201591
  O        12.6692514516       12.6692515585       13.5233828002
       3
 i =        4, E =       -37.7641484044
  C        13.5007309246       13.5007307155       13.5212756627
  O        14.3322413628       14.3322412774       13.5202752304
  O        12.6692577564       12.6692580594       13.5215662259
       3
 i =        5, E =       -37.7641485671
  C        13.5007649158       13.5007651155       13.5214938964
  O        14.3321406154       14.3321403217       13.5206144985
  O        12.6693844785       12.6693845746       13.5218477186
       3
 i =        6, E =       -37.7641487013
  C        13.5008076121       13.5008074904       13.5219686787
  O        14.3321397879       14.3321396560       13.5211267607
  O        12.6694510009       12.6694512616       13.5223419638
       3
 i =        7, E =       -37.7641504756
  C        13.5015030689       13.5015039600       13.5303679738
  O        14.3324106267       14.3324099540       13.5298150369
  O        12.6703813612       12.6703811313       13.5309211997
       3
 i =        8, E =       -37.7641522801
  C        13.5025971270       13.5025919218       13.5439769159
  O        14.3331307481       14.3331331215       13.5437170463
  O        12.6716733599       12.6716762646       13.5448494136
       3
 i =        9, E =       -37.7641546407
  C        13.5031049901       13.5031049743       13.5505547445
  O        14.3337686361       14.3337684023       13.5504193843
  O        12.6721137863       12.6721140956       13.5517625016
       3
 i =       10, E =       -37.7641588418
  C        13.5043197487       13.5043023535       13.5658042276
  O        14.3357001320       14.3357086789       13.5653111911
  O        12.6729027075       12.6729118993       13.5674192768
       3
 i =       11, E =       -37.7641593225
  C        13.5049624427       13.5049811094       13.5726983589
  O        14.3363826891       14.3363729416       13.5719905319
  O        12.6735609909       12.6735519299       13.5742377784
       3
 i =       12, E =       -37.7641762121
  C        13.5132095149       13.5126694268       13.6505282120
  O        14.3441707028       14.3444445917       13.6489868138
  O        12.6813653758       12.6816403780       13.6526956088
       3
 i =       13, E =       -37.7641718002
  C        13.5097421288       13.5100567448       13.6193199241
  O        14.3413623032       14.3412055695       13.6178847557
  O        12.6785671408       12.6784107826       13.6210234433
       3
 i =       14, E =       -37.7641764738
  C        13.5124623832       13.5130430409       13.6464843700
  O        14.3442825596       14.3439933533       13.6445661546
  O        12.6814875672       12.6811984564       13.6482326489
       3
 i =       15, E =       -37.7641765148
  C        13.5131980564       13.5125412371       13.6458928820
  O        14.3440822566       14.3444151195       13.6441679547
  O        12.6812952575       12.6816288438       13.6478068958
       3
 i =       16, E =       -37.7641766887
  C        13.5130179954       13.5129325460       13.6454508455
  O        14.3443349761       14.3443807895       13.6436728755
  O        12.6815456267       12.6815918400       13.6472977876
       3
 i =       17, E =       -37.7641768288
  C        13.5132725118       13.5134475225       13.6453013153
  O        14.3447873048       14.3447024192       13.6435052270
  O        12.6819965793       12.6819119090       13.6471017680
       3
 i =       18, E =       -37.7641775432
  C        13.5155865257       13.5166371294       13.6452365653
  O        14.3477662529       14.3472421929       13.6434257599
  O        12.6849714046       12.6844465147       13.6468337732
       3
 i =       19, E =       -37.7641787524
  C        13.5213209636       13.5233563008       13.6457837097
  O        14.3542511089       14.3532307808       13.6440509843
  O        12.6914522477       12.6904293254       13.6470420201
       3
 i =       20, E =       -37.7641802253
  C        13.5287674310       13.5309847055       13.6463461333
  O        14.3618497905       14.3607230153       13.6448254103
  O        12.6990515613       12.6979207271       13.6473048729
       3
 i =       21, E =       -37.7641825793
  C        13.5394175100       13.5406523551       13.6463712554
  O        14.3717909605       14.3711105235       13.6453107679
  O        12.7089939002       12.7083095885       13.6470630002
       3
 i =       22, E =       -37.7641890253
  C        13.5730974936       13.5722144186       13.6476070341
  O        14.4039620377       14.4041949901       13.6479718480
  O        12.7411484790       12.7413777759       13.6473672120
       3
 i =       23, E =       -37.7641891470
  C        13.5764266447       13.5757808630       13.6460739415
  O        14.4074712701       14.4075735760       13.6465683676
  O        12.7446584295       12.7447560970       13.6456612215
       3
 i =       24, E =       -37.7641891738
  C        13.5736677129       13.5739761394       13.6414378019
  O        14.4054138863       14.4050507396       13.6418349162
  O        12.7426041674       12.7422347190       13.6409527901
       3
 i =       25, E =       -37.7641892634
  C        13.5747502361       13.5746081796       13.6436063114
  O        14.4061712121       14.4060274520       13.6440374575
  O        12.7433563541       12.7432080100       13.6431732624
       3
 i =       26, E =       -37.7641892635
  C        13.5747816525       13.5746337422       13.6437108360
  O        14.4061991416       14.4060573364       13.6441393722
  O        12.7433835163       12.7432379793       13.6432793538
       3
 i =       27, E =       -37.7641892635
  C        13.5747816525       13.5746337422       13.6437108360
  O        14.4061991416       14.4060573364       13.6441393722
  O        12.7433835163       12.7432379793       13.6432793538
