       4
 i =        2, E =       -26.3349757599
  P        13.1224038661       13.8018068822       14.5292122148
  P        12.5669613696       13.2024362824       12.4727349079
  P        14.4320090565       12.4349438511       13.3832463615
  P        14.2786743572       14.5650669213       12.8038914271
       4
 i =        3, E =       -26.3350518149
  P        13.1241577811       13.8006756676       14.5246300645
  P        12.5707717225       13.2035472815       12.4758166192
  P        14.4289379950       12.4389157649       13.3829229575
  P        14.2761591310       14.5611161619       12.8057050485
       4
 i =        4, E =       -26.3350518208
  P        13.1241180259       13.8006282599       14.5245829868
  P        12.5707212871       13.2035523907       12.4758940883
  P        14.4289656847       12.4389880898       13.3828984296
  P        14.2761300662       14.5610900038       12.8056547916
       4
 i =        5, E =       -26.3350518208
  P        13.1241180259       13.8006282599       14.5245829868
  P        12.5707212871       13.2035523907       12.4758940883
  P        14.4289656847       12.4389880898       13.3828984296
  P        14.2761300662       14.5610900038       12.8056547916
