      10
 i =        2, E =      -122.5305886810
  O        12.0178655119       14.3298451309       13.0939923147
  O        12.7343637369       11.9587739131       13.1858084971
  P        13.3663341720       15.1440429708       12.3186034775
  P        14.3246178305       11.9738348843       12.4414515507
  O        14.0131538544       13.5880542139       11.8247494521
  P        11.6564540272       12.9653780274       14.1382401470
  O        13.0004873914       13.4117314909       15.1756761224
  O        14.2796066373       15.0411762177       13.8148307492
  O        14.9961046778       12.6706440481       13.9062945353
  P        14.6805124100       13.9170464518       15.1024241169
      10
 i =        3, E =      -122.6742811714
  O        11.9237312960       14.3822368257       13.0682524027
  O        12.6855489874       11.8613917722       13.1658643251
  P        13.3777876623       15.0100036976       12.4149811947
  P        14.2579883235       12.0983616992       12.5277872532
  O        14.0450728882       13.5936593455       11.7188918073
  P        11.8072604120       13.0089274656       14.0862572676
  O        12.9685943920       13.4060962704       15.2814988794
  O        14.3283570507       15.1386002568       13.8347742559
  O        15.0903099875       12.6182072702       13.9320137916
  P        14.5849039942       13.8830381040       14.9717615251
      10
 i =        4, E =      -122.6793174019
  O        11.9387850113       14.3738147049       13.0724221036
  O        12.6933510120       11.8772840031       13.1688236646
  P        13.3792842093       14.9928828341       12.4273191916
  P        14.2495235863       12.1144755823       12.5386398893
  O        14.0399223802       13.5929604617       11.7354462295
  P        11.8263341328       13.0144649457       14.0797873642
  O        12.9738078995       13.4068106304       15.2647065966
  O        14.3204813638       15.1229729946       13.8317683387
  O        15.0752225271       12.6263769191       13.9280399079
  P        14.5727786289       13.8785566422       14.9551783650
      10
 i =        5, E =      -122.6813812278
  O        11.9640617464       14.3597137835       13.0794278493
  O        12.7065477578       11.9038177768       13.1737688847
  P        13.3800355893       14.9810492426       12.4361177179
  P        14.2434365538       12.1257757742       12.5461767166
  O        14.0312851958       13.5918887599       11.7643327171
  P        11.8404560899       13.0185032225       14.0750130431
  O        12.9825743367       13.4080381122       15.2364649117
  O        14.3071434031       15.0960910801       13.8264480071
  O        15.0496957785       12.6407264145       13.9208437794
  P        14.5640925554       13.8751542172       14.9435676548
      10
 i =        6, E =      -122.6814020915
  O        11.9622622333       14.3605812187       13.0791292418
  O        12.7057079816       11.9021115441       13.1734892311
  P        13.3800494031       14.9825237561       12.4351801309
  P        14.2443466550       12.1245627347       12.5450785308
  O        14.0318110189       13.5920671240       11.7618204107
  P        11.8378154245       13.0176804425       14.0758115768
  O        12.9820313837       13.4077855145       15.2380497279
  O        14.3080036652       15.0984758788       13.8271512613
  O        15.0517476918       12.6394125044       13.9214838806
  P        14.5654578250       13.8756052610       14.9449431601
      10
 i =        7, E =      -122.6814021562
  O        11.9620601454       14.3607073689       13.0790565143
  O        12.7056755479       11.9018335877       13.1732315670
  P        13.3797159750       14.9829278203       12.4351279293
  P        14.2442704409       12.1242997907       12.5449376804
  O        14.0318130158       13.5922672627       11.7624559633
  P        11.8386306009       13.0178085460       14.0755697584
  O        12.9820226639       13.4076851190       15.2384428178
  O        14.3079431145       15.0980197052       13.8270005536
  O        15.0516594791       12.6398254544       13.9211176831
  P        14.5653333459       13.8754882547       14.9451738926
      10
 i =        8, E =      -122.6814024655
  O        11.9621643283       14.3605652280       13.0792041915
  O        12.7057917250       11.9020538188       13.1732712367
  P        13.3797976509       14.9827615250       12.4353182067
  P        14.2442918367       12.1245815990       12.5449281773
  O        14.0317193824       13.5923331309       11.7622586228
  P        11.8383053820       13.0176693857       14.0756503914
  O        12.9820973439       13.4075821949       15.2381337476
  O        14.3078363628       15.0981753985       13.8271690844
  O        15.0516776555       12.6397149108       13.9211676650
  P        14.5653708755       13.8754664100       14.9450001117
      10
 i =        9, E =      -122.6814024655
  O        11.9621643283       14.3605652280       13.0792041915
  O        12.7057917250       11.9020538188       13.1732712367
  P        13.3797976509       14.9827615250       12.4353182067
  P        14.2442918367       12.1245815990       12.5449281773
  O        14.0317193824       13.5923331309       11.7622586228
  P        11.8383053820       13.0176693857       14.0756503914
  O        12.9820973439       13.4075821949       15.2381337476
  O        14.3078363628       15.0981753985       13.8271690844
  O        15.0516776555       12.6397149108       13.9211676650
  P        14.5653708755       13.8754664100       14.9450001117
